cartella/LineCode.dss
New "LineCode.ug" rmatrix=[  0.00000100   0.00000100   0.00000100 |  0.00000100   0.00000100   0.00000100 |  0.00000100   0.00000100   0.00000100 ] units=km
New "LineCode.racoon" rmatrix=[  0.00000100   0.00000100   0.00000100 |  0.00000100   0.00000100   0.00000100 |  0.00000100   0.00000100   0.00000100 ] units=km
New "LineCode.moon" rmatrix=[  0.00000100   0.00000100   0.00000100 |  0.00000100   0.00000100   0.00000100 |  0.00000100   0.00000100   0.00000100 ] units=km
New "LineCode.tr" rmatrix=[  0.00000100   0.00000100   0.00000100 |  0.00000100   0.00000100   0.00000100 |  0.00000100   0.00000100   0.00000100 ] units=km
